testData/IEEE300/testCases/IEEE300Bus_modified_noHVDC_v2_zone1scalepercent_7.raw
0,   100.00, 30, 0, 1,  60.00     / PSS(R)E 30 RAW created by rawd30  MON, NOV 23 2020  14:25
 00/00/01                      100.0  0    0
 0
     1,'1           ', 115.0000,1,     0.000,     0.000,   1,   1,1.02173,   4.8577,   1
     2,'2           ', 115.0000,1,     0.000,     0.000,   1,   1,1.03339,   6.9085,   1
     3,'3           ', 230.0000,1,     0.000,     0.000,   1,   1,0.99206,   6.9887,   1
     4,'4           ', 345.0000,1,     0.000,     0.000,   1,   1,1.02380,   4.7844,   1
     5,'5           ', 115.0000,1,     0.000,     0.000,   1,   1,1.01064,   3.3796,   1
     6,'6           ', 115.0000,1,     0.000,     0.000,   1,   1,1.02811,   6.2418,   1
     7,'7           ', 230.0000,1,     0.000,     0.000,   1,   1,0.98856,   6.3814,   1
     8,'8           ', 115.0000,1,     0.000,     0.000,   1,   1,1.01529,   0.2125,   1
     9,'9           ', 115.0000,1,     0.000,     0.000,   1,   1,0.99517,   0.7330,   1
    10,'10          ', 230.0000,1,     0.000,     0.000,   1,   1,1.02050,  -0.8200,   1
    11,'11          ', 115.0000,1,     0.000,     0.000,   1,   1,1.00242,  -0.0786,   1
    12,'12          ', 230.0000,1,     0.000,     0.000,   1,   1,0.99210,   4.3381,   1
    13,'13          ', 115.0000,1,     0.000,     0.000,   1,   1,0.99431,  -3.8524,   1
    14,'14          ', 115.0000,1,     0.000,     0.000,   1,   1,0.98536,  -8.3292,   1
    15,'15          ', 115.0000,1,     0.000,     0.000,   1,   1,1.02236, -12.6015,   1
    16,'16          ', 345.0000,1,     0.000,     0.000,   1,   1,1.01901,  -3.6415,   1
    17,'17          ', 115.0000,1,     0.000,     0.000,   1,   1,1.04528, -19.6976,   1
    19,'19          ', 230.0000,1,     0.000,     0.000,   1,   1,0.97257,  -1.3098,   1
    20,'20          ', 115.0000,1,     0.000,     0.000,   1,   1,1.00099,  -6.2279,   1
    21,'21          ', 230.0000,1,     0.000,     0.000,   1,   1,0.96876,  -0.9280,   1
    22,'22          ', 115.0000,1,     0.000,     0.000,   1,   1,0.99164,  -5.9732,   1
    23,'23          ', 115.0000,1,     0.000,     0.000,   1,   1,1.04746,   0.2548,   1
    24,'24          ', 230.0000,1,     0.000,     0.000,   1,   1,1.00223,   3.0519,   1
    25,'25          ', 115.0000,1,     0.000,     0.000,   1,   1,1.01400,  -2.7126,   1
    26,'26          ', 115.0000,1,     0.000,     0.000,   1,   1,0.98404,  -6.4302,   1
    27,'27          ', 115.0000,1,     0.000,     0.000,   1,   1,0.95778,  -9.9805,   1
    33,'33          ', 115.0000,1,     0.000,     0.000,   1,   1,1.01136, -14.2169,   1
    34,'34          ', 345.0000,1,     0.000,     0.000,   1,   1,1.02994,  -8.6044,   1
    35,'35          ', 115.0000,1,     0.000,     0.000,   1,   1,0.97319, -25.0195,   1
    36,'36          ', 230.0000,1,     0.000,     0.000,   1,   1,0.99286, -20.5358,   1
    37,'37          ', 115.0000,1,     0.000,     0.000,   1,   1,1.00862, -13.6185,   1
    38,'38          ', 115.0000,1,     0.000,     0.000,   1,   1,1.00634, -14.8849,   1
    39,'39          ', 345.0000,1,     0.000,     0.000,   1,   1,1.04466,  -6.1562,   1
    40,'40          ', 115.0000,1,     0.000,     0.000,   1,   1,1.00859, -15.4501,   1
    41,'41          ', 115.0000,1,     0.000,     0.000,   1,   1,1.01743, -12.1884,   1
    42,'42          ', 345.0000,1,     0.000,     0.000,   1,   1,1.03438,  -7.9281,   1
    43,'43          ', 115.0000,1,     0.000,     0.000,   1,   1,0.98378, -19.3665,   1
    44,'44          ', 115.0000,1,     0.000,     0.000,   1,   1,0.99604, -18.8713,   1
    45,'45          ', 230.0000,1,     0.000,     0.000,   1,   1,1.00970, -14.9501,   1
    46,'46          ', 345.0000,1,     0.000,     0.000,   1,   1,1.02510, -11.3007,   1
    47,'47          ', 115.0000,1,     0.000,     0.000,   1,   1,0.95984, -25.0360,   1
    48,'48          ', 115.0000,1,     0.000,     0.000,   1,   1,0.98827, -20.9048,   1
    49,'49          ', 115.0000,1,     0.000,     0.000,   1,   1,1.04417,  -3.1530,   1
    51,'51          ', 115.0000,1,     0.000,     0.000,   1,   1,1.01233,  -9.5352,   1
    52,'52          ', 115.0000,1,     0.000,     0.000,   1,   1,0.97727, -14.4535,   1
    53,'53          ', 115.0000,1,     0.000,     0.000,   1,   1,0.97766, -20.3934,   1
    54,'54          ', 115.0000,1,     0.000,     0.000,   1,   1,0.98954, -18.6227,   1
    55,'55          ', 115.0000,1,     0.000,     0.000,   1,   1,1.00046, -15.0399,   1
    57,'57          ', 115.0000,1,     0.000,     0.000,   1,   1,1.02396, -11.7684,   1
    58,'58          ', 115.0000,1,     0.000,     0.000,   1,   1,0.97598,  -9.5855,   1
    59,'59          ', 115.0000,1,     0.000,     0.000,   1,   1,0.96147,  -8.7826,   1
    60,'60          ', 230.0000,1,     0.000,     0.000,   1,   1,1.01430,  -9.7485,   1
    61,'61          ', 115.0000,1,     0.000,     0.000,   1,   1,0.97757,  -6.4939,   1
    62,'62          ', 230.0000,1,     0.000,     0.000,   1,   1,1.00827,  -1.2836,   1
    63,'63          ', 115.0000,1,     0.000,     0.000,   1,   1,0.95830, -20.0764,   1
    64,'64          ', 230.0000,1,     0.000,     0.000,   1,   1,0.94254, -14.8570,   1
    69,'69          ', 115.0000,1,     0.000,     0.000,   1,   1,0.95071, -22.5901,   1
    70,'70          ', 115.0000,1,     0.000,     0.000,   1,   1,0.93885, -35.9029,   1
    71,'71          ', 115.0000,1,     0.000,     0.000,   1,   1,0.96759, -30.4912,   1
    72,'72          ', 115.0000,1,     0.000,     0.000,   1,   1,0.96138, -27.2733,   1
    73,'73          ', 115.0000,1,     0.000,     0.000,   1,   1,0.96569, -25.5276,   1
    74,'74          ', 230.0000,1,     0.000,     0.000,   1,   1,0.98469, -20.8341,   1
    76,'76          ', 115.0000,1,     0.000,     0.000,   1,   1,0.96319, -26.2987,   1
    77,'77          ', 115.0000,1,     0.000,     0.000,   1,   1,0.97878, -24.0404,   1
    78,'78          ', 115.0000,1,     0.000,     0.000,   1,   1,0.98491, -23.0697,   1
    79,'79          ', 115.0000,1,     0.000,     0.000,   1,   1,0.97343, -23.9146,   1
    80,'80          ', 115.0000,1,     0.000,     0.000,   1,   1,0.97921, -22.1974,   1
    81,'81          ', 345.0000,1,     0.000,     0.000,   1,   1,1.02638, -14.3306,   1
    84,'84          ', 115.0000,1,     0.000,     0.000,   1,   1,1.02499, -15.8072,   1
    85,'85          ', 230.0000,1,     0.000,     0.000,   1,   1,0.98073, -25.0824,   1
    86,'86          ', 230.0000,1,     0.000,     0.000,   1,   1,0.97958, -20.9703,   1
    87,'87          ', 230.0000,1,     0.000,     0.000,   1,   1,0.97683, -12.7690,   1
    88,'88          ', 230.0000,1,     0.000,     0.000,   1,   1,1.00687, -18.1292,   1
    89,'89          ', 115.0000,1,     0.000,     0.000,   1,   1,1.02299, -16.2153,   1
    90,'90          ', 115.0000,1,     0.000,     0.000,   1,   1,1.01517, -15.6031,   1
    91,'91          ', 115.0000,1,     0.000,     0.000,   1,   1,1.05199, -15.4771,   1
    92,'92          ', 115.0000,1,     0.000,     0.000,   1,   1,1.05200, -11.6222,   1
    94,'94          ', 115.0000,1,     0.000,     0.000,   1,   1,0.98150, -15.0004,   1
    97,'97          ', 115.0000,1,     0.000,     0.000,   1,   1,1.01345, -20.0862,   1
    98,'98          ', 115.0000,1,     0.000,     0.000,   1,   1,1.00000, -22.2648,   1
    99,'99          ', 115.0000,1,     0.000,     0.000,   1,   1,0.98825, -28.0715,   1
   100,'100         ', 115.0000,1,     0.000,     0.000,   1,   1,1.00187, -21.6944,   1
   102,'102         ', 115.0000,1,     0.000,     0.000,   1,   1,0.99489, -22.5178,   1
   103,'103         ', 115.0000,1,     0.000,     0.000,   1,   1,1.02395, -18.3585,   1
   104,'104         ', 115.0000,1,     0.000,     0.000,   1,   1,0.99118, -24.9154,   1
   105,'105         ', 115.0000,1,     0.000,     0.000,   1,   1,1.01610, -19.0853,   1
   107,'107         ', 115.0000,1,     0.000,     0.000,   1,   1,0.99978, -21.9545,   1
   108,'108         ', 115.0000,1,     0.000,     0.000,   1,   1,0.98999, -28.1624,   1
   109,'109         ', 115.0000,1,     0.000,     0.000,   1,   1,0.95914, -32.1298,   1
   110,'110         ', 115.0000,1,     0.000,     0.000,   1,   1,0.95960, -31.7781,   1
   112,'112         ', 115.0000,1,     0.000,     0.000,   1,   1,0.95395, -32.9396,   1
   113,'113         ', 115.0000,1,     0.000,     0.000,   1,   1,0.95098, -28.6067,   1
   114,'114         ', 115.0000,1,     0.000,     0.000,   1,   1,0.95653, -32.3928,   1
   115,'115         ', 115.0000,1,     0.000,     0.000,   2,   2,0.93757,  18.3646,   1
   116,'116         ', 115.0000,1,     0.000,     0.000,   2,   2,1.03566,  25.1272,   1
   117,'117         ', 115.0000,1,     0.000,   325.000,   2,   2,0.92490,  31.3972,   1
   118,'118         ', 115.0000,1,     0.000,     0.000,   2,   2,0.91907,  32.5313,   1
   119,'119         ', 115.0000,1,     0.000,     0.000,   2,   2,1.04338,  47.4821,   1
   120,'120         ', 115.0000,1,     0.000,    55.000,   2,   2,1.01917,  42.8824,   1
   121,'121         ', 115.0000,1,     0.000,     0.000,   2,   2,0.86147,  21.7164,   1
   122,'122         ', 115.0000,1,     0.000,     0.000,   2,   2,0.91832,  16.0271,   1
   123,'123         ', 115.0000,1,     0.000,     0.000,   2,   2,0.97613,  11.2206,   1
   124,'124         ', 115.0000,1,     0.000,     0.000,   2,   2,1.02328,  22.0243,   1
   125,'125         ', 115.0000,1,     0.000,     0.000,   2,   2,1.01026,   1.0135,   1
   126,'126         ', 115.0000,1,     0.000,     0.000,   2,   2,0.98142,   5.1934,   1
   127,'127         ', 230.0000,1,     0.000,     0.000,   2,   2,0.99563,   0.1502,   1
   128,'128         ', 230.0000,1,     0.000,     0.000,   2,   2,1.00376,   1.5247,   1
   129,'129         ', 230.0000,1,     0.000,     0.000,   2,   2,1.00312,   2.2580,   1
   130,'130         ', 230.0000,1,     0.000,     0.000,   2,   2,1.01788,   9.1644,   1
   131,'131         ', 230.0000,1,     0.000,     0.000,   2,   2,0.98376,   7.1877,   1
   132,'132         ', 230.0000,1,     0.000,     0.000,   2,   2,1.00509,   7.7983,   1
   133,'133         ', 230.0000,1,     0.000,     0.000,   2,   2,1.00233,   0.0608,   1
   134,'134         ', 230.0000,1,     0.000,     0.000,   2,   2,1.02098,   1.7833,   1
   135,'135         ', 230.0000,1,     0.000,     0.000,   2,   2,1.02001,   2.1239,   1
   136,'136         ', 230.0000,1,     0.000,     0.000,   2,   2,1.04690,   8.4391,   1
   137,'137         ', 230.0000,1,     0.000,     0.000,   2,   2,1.04496,   1.7485,   1
   138,'138         ', 230.0000,1,     0.000,     0.000,   2,   2,1.05497,  -7.5458,   1
   139,'139         ', 115.0000,1,     0.000,     0.000,   2,   2,1.01084,   0.7205,   1
   140,'140         ', 230.0000,1,     0.000,     0.000,   2,   2,1.04163,   0.2638,   1
   141,'141         ', 230.0000,1,     0.000,     0.000,   2,   2,1.05099,   4.5613,   1
   142,'142         ', 230.0000,1,     0.000,     0.000,   2,   2,1.01457,   1.1344,   1
   143,'143         ', 230.0000,1,     0.000,     0.000,   2,   2,1.04349,   7.8011,   1
   144,'144         ', 230.0000,1,     0.000,     0.000,   2,   2,1.00903,  -0.5747,   1
   145,'145         ', 230.0000,1,     0.000,     0.000,   2,   2,1.00791,   4.0638,   1
   146,'146         ', 230.0000,1,     0.000,     0.000,   2,   2,1.05280,   8.8404,   1
   147,'147         ', 230.0000,1,     0.000,     0.000,   2,   2,1.05280,  13.1201,   1
   148,'148         ', 230.0000,1,     0.000,     0.000,   2,   2,1.05746,   4.1637,   1
   149,'149         ', 230.0000,1,     0.000,     0.000,   2,   2,1.07350,   9.3721,   1
   150,'150         ', 230.0000,1,     0.000,     0.000,   2,   2,0.98481,   7.7509,   1
   151,'151         ', 230.0000,1,     0.000,     0.000,   2,   2,1.00441,   7.9649,   1
   152,'152         ', 230.0000,1,     0.000,     0.000,   2,   2,1.05350,  16.5543,   1
   153,'153         ', 230.0000,1,     0.000,     0.000,   2,   2,1.04350,  17.5224,   1
   154,'154         ', 115.0000,1,     0.000,    34.500,   2,   2,0.96725,   4.8653,   1
   155,'155         ', 230.0000,1,     0.000,     0.000,   2,   2,1.01362,  12.9967,   1
   156,'156         ', 115.0000,1,     0.000,     0.000,   2,   2,0.96300,  11.4053,   1
   157,'157         ', 230.0000,1,     0.000,     0.000,   2,   2,0.93275,  17.6080,   1
   158,'158         ', 230.0000,1,     0.000,     0.000,   2,   2,0.95370,  17.0340,   1
   159,'159         ', 230.0000,1,     0.000,     0.000,   2,   2,0.92218,  21.8292,   1
   160,'160         ', 230.0000,1,     0.000,     0.000,   2,   2,0.98204,  19.7267,   1
   161,'161         ', 230.0000,1,     0.000,     0.000,   2,   2,1.03446,  15.6388,   1
   162,'162         ', 230.0000,1,     0.000,     0.000,   2,   2,0.98302,  25.4155,   1
   163,'163         ', 230.0000,1,     0.000,     0.000,   2,   2,1.03240,   7.2379,   1
   164,'164         ', 230.0000,1,     0.000,  -212.000,   2,   2,0.97608,  15.7054,   1
   165,'165         ', 230.0000,1,     0.000,     0.000,   2,   2,0.99421,  33.8686,   1
   166,'166         ', 230.0000,1,     0.000,  -103.000,   2,   2,0.99355,  38.0841,   1
   167,'167         ', 230.0000,1,     0.000,     0.000,   2,   2,0.97186,  -0.7645,   1
   168,'168         ', 230.0000,1,     0.000,     0.000,   2,   2,1.00376,   1.5077,   1
   169,'169         ', 230.0000,1,     0.000,     0.000,   2,   2,0.98672,   0.0427,   1
   170,'170         ', 115.0000,1,     0.000,     0.000,   2,   2,0.92899,   4.5550,   1
   171,'171         ', 115.0000,1,     0.000,     0.000,   2,   2,0.98289,  -4.4123,   1
   172,'172         ', 115.0000,1,     0.000,     0.000,   2,   2,1.02380,  -1.8101,   1
   173,'173         ', 115.0000,1,     0.000,    53.000,   2,   2,0.98224,  -8.2534,   1
   174,'174         ', 115.0000,1,     0.000,     0.000,   2,   2,1.06194,   1.8020,   1
   175,'175         ', 115.0000,1,     0.000,     0.000,   2,   2,0.97301,  -3.0915,   1
   176,'176         ', 115.0000,1,     0.000,     0.000,   2,   2,1.05220,  10.0036,   1
   177,'177         ', 115.0000,1,     0.000,     0.000,   2,   2,1.00770,   5.6344,   1
   178,'178         ', 115.0000,1,     0.000,     0.000,   2,   2,0.93945,  -2.1939,   1
   179,'179         ', 115.0000,1,     0.000,    45.000,   2,   2,0.96988,  -5.1859,   1
   180,'180         ', 115.0000,1,     0.000,     0.000,   2,   2,0.97904,   1.1825,   1
   181,'181         ', 230.0000,1,     0.000,     0.000,   2,   2,1.04864,   1.3208,   1
   182,'182         ', 230.0000,1,     0.000,     0.000,   2,   2,1.04374,  -0.2626,   1
   183,'183         ', 115.0000,1,     0.000,     0.000,   2,   2,0.97179,  14.1175,   1
   184,'184         ', 230.0000,1,     0.000,     0.000,   2,   2,1.03802,   3.2585,   1
   185,'185         ', 230.0000,1,     0.000,     0.000,   2,   2,1.05220,   5.9463,   1
   186,'186         ', 230.0000,1,     0.000,     0.000,   2,   2,1.06497,   5.3112,   1
   187,'187         ', 230.0000,1,     0.000,     0.000,   2,   2,1.06497,   4.2659,   1
   188,'188         ', 230.0000,1,     0.000,     0.000,   2,   2,1.05064,   2.0238,   1
   189,'189         ',  66.0000,1,     0.000,     0.000,   3,   3,0.99562, -20.8304,   1
   190,'190         ', 345.0000,1,     0.000,  -150.000,   3,   3,1.05510,  -9.9276,   1
   191,'191         ', 230.0000,1,     0.000,     0.000,   3,   3,1.04342,  33.3233,   1
   192,'192         ', 230.0000,1,     0.000,     0.000,   3,   3,0.91630,   7.2251,   1
   193,'192         ',  66.0000,1,     0.000,     0.000,   3,   3,0.98552, -21.8676,   1
   194,'194         ', 345.0000,1,     0.000,     0.000,   3,   3,1.04399, -11.5497,   1
   195,'195         ', 345.0000,1,     0.000,     0.000,   3,   3,1.03067, -13.4258,   1
   196,'196         ', 115.0000,1,     0.000,     0.000,   3,   3,0.96316, -19.6760,   1
   197,'197         ', 115.0000,1,     0.000,     0.000,   3,   3,0.98660, -17.7920,   1
   198,'198         ', 115.0000,1,     0.000,     0.000,   3,   3,1.01499, -14.3694,   1
   199,'199         ', 115.0000,1,     0.000,     0.000,   3,   3,0.95086, -19.7113,   1
   200,'200         ', 115.0000,1,     0.000,     0.000,   3,   3,0.95551, -19.2154,   1
   201,'201         ',  66.0000,1,     0.000,     0.000,   1,   1,0.95108, -24.5881,   1
   202,'202         ',  66.0000,1,     0.000,     0.000,   3,   3,0.98633, -19.2898,   1
   203,'203         ', 115.0000,1,     0.000,     0.000,   3,   3,1.00113, -16.2187,   1
   204,'204         ',  66.0000,1,     0.000,     0.000,   3,   3,0.96276, -21.7309,   1
   205,'205         ',  66.0000,1,     0.000,     0.000,   3,   3,0.97596, -22.2228,   1
   206,'206         ',  66.0000,1,     0.000,     0.000,   3,   3,0.97816, -27.0869,   1
   207,'207         ',  66.0000,1,     0.000,     0.000,   1,   1,0.98465, -28.7695,   1
   208,'208         ',  66.0000,1,     0.000,     0.000,   3,   3,0.98887, -22.0703,   1
   209,'209         ',  66.0000,1,     0.000,     0.000,   3,   3,1.00008, -20.3221,   1
   210,'210         ', 115.0000,1,     0.000,     0.000,   3,   3,0.97571, -18.1538,   1
   211,'211         ', 115.0000,1,     0.000,     0.000,   3,   3,0.99682, -17.2945,   1
   212,'212         ', 138.0000,1,     0.000,     0.000,   3,   3,1.00908, -15.8467,   1
   213,'213         ',  16.5000,1,     0.000,     0.000,   3,   3,1.01000,  -1.8782,   1
   214,'214         ', 138.0000,1,     0.000,     0.000,   3,   3,0.99137,  -8.1396,   1
   215,'215         ', 138.0000,1,     0.000,     0.000,   3,   3,0.98558, -11.0952,   1
   216,'216         ', 138.0000,1,     0.000,     0.000,   3,   3,0.97469, -12.9220,   1
   217,'217         ', 138.0000,1,     0.000,     0.000,   3,   3,1.02034, -11.6925,   1
   218,'218         ', 138.0000,1,     0.000,     0.000,   3,   3,1.00614, -11.9218,   1
...
 0 /End of Bus data, Begin Load data
     1,'1 ',1,   1,   1,   111.633,    60.778,     0.000,     0.000,     0.000,     0.000,   1
     2,'1 ',1,   1,   1,    69.460,    18.605,     0.000,     0.000,     0.000,     0.000,   1
     3,'1 ',1,   1,   1,    24.807,     0.000,     0.000,     0.000,     0.000,     0.000,   1
     5,'1 ',1,   1,   1,   437.848,   161.247,     0.000,     0.000,     0.000,     0.000,   1
     6,'1 ',1,   1,   1,   148.843,    50.855,     0.000,     0.000,     0.000,     0.000,   1
     8,'1 ',1,   1,   1,    71.941,    17.365,     0.000,     0.000,     0.000,     0.000,   1
     9,'1 ',1,   1,   1,   119.075,    53.336,     0.000,     0.000,     0.000,     0.000,   1
    10,'1 ',1,   1,   1,   183.574,    40.932,     0.000,     0.000,     0.000,     0.000,   1
    11,'1 ',1,   1,   1,   102.950,    26.048,     0.000,     0.000,     0.000,     0.000,   1
    13,'1 ',1,   1,   1,    71.941,    12.404,     0.000,     0.000,     0.000,     0.000,   1
    14,'1 ',1,   1,   1,   198.458,    74.422,     0.000,     0.000,     0.000,     0.000,   1
    15,'1 ',1,   1,   1,   157.154,    28.528,     0.000,     0.000,     0.000,     0.000,   1
    17,'1 ',1,   1,   1,   695.843,   272.880,     0.000,     0.000,     0.000,     0.000,   1
    20,'1 ',1,   1,   1,   738.015,   148.843,     0.000,     0.000,     0.000,     0.000,   1
    21,'1 ',1,   1,   1,    95.508,     1.240,     0.000,     0.000,     0.000,     0.000,   1
    22,'1 ',1,   1,   1,   100.469,    28.528,     0.000,     0.000,     0.000,     0.000,   1
    23,'1 ',1,   1,   1,    26.048,     8.683,     0.000,     0.000,     0.000,     0.000,   1
    25,'1 ',1,   1,   1,    55.816,    14.884,     0.000,     0.000,     0.000,     0.000,   1
    26,'1 ',1,   1,   1,    34.730,    11.163,     0.000,     0.000,     0.000,     0.000,   1
    27,'1 ',1,   1,   1,    85.585,    16.125,     0.000,     0.000,     0.000,     0.000,   1
    33,'1 ',1,   1,   1,    68.220,     7.442,     0.000,     0.000,     0.000,     0.000,   1
    37,'1 ',1,   1,   1,   105.431,    39.692,     0.000,     0.000,     0.000,     0.000,   1
    38,'1 ',1,   1,   1,   192.256,    22.327,     0.000,     0.000,     0.000,     0.000,   1
    40,'1 ',1,   1,   1,    57.057,   -26.048,     0.000,     0.000,     0.000,     0.000,   1
    41,'1 ',1,   1,   1,   106.671,     0.000,     0.000,     0.000,     0.000,     0.000,   1
    43,'1 ',1,   1,   1,    48.374,    11.163,     0.000,     0.000,     0.000,     0.000,   1
    44,'1 ',1,   1,   1,   241.871,    35.970,     0.000,     0.000,     0.000,     0.000,   1
    47,'1 ',1,   1,   1,    71.941,    14.636,     0.000,     0.000,     0.000,     0.000,   1
    48,'1 ',1,   1,   1,    50.855,    23.567,     0.000,     0.000,     0.000,     0.000,   1
    49,'1 ',1,   1,   1,   114.113,    32.249,     0.000,     0.000,     0.000,     0.000,   1
    51,'1 ',1,   1,   1,    -6.202,     6.202,     0.000,     0.000,     0.000,     0.000,   1
    52,'1 ',1,   1,   1,    75.662,    34.730,     0.000,     0.000,     0.000,     0.000,   1
    53,'1 ',1,   1,   1,    85.585,     3.721,     0.000,     0.000,     0.000,     0.000,   1
    54,'1 ',1,   1,   1,    12.404,     1.240,     0.000,     0.000,     0.000,     0.000,   1
    55,'1 ',1,   1,   1,    27.288,    12.404,     0.000,     0.000,     0.000,     0.000,   1
    57,'1 ',1,   1,   1,   121.555,    24.807,     0.000,     0.000,     0.000,     0.000,   1
    58,'1 ',1,   1,   1,    17.365,     1.240,     0.000,     0.000,     0.000,     0.000,   1
    59,'1 ',1,   1,   1,   270.399,   131.478,     0.000,     0.000,     0.000,     0.000,   1
    61,'1 ',1,   1,   1,   281.562,   136.440,     0.000,     0.000,     0.000,     0.000,   1
    63,'1 ',1,   1,   1,    86.825,    37.211,     0.000,     0.000,     0.000,     0.000,   1
    70,'1 ',1,   1,   1,    56.000,    20.000,     0.000,     0.000,     0.000,     0.000,   1
    71,'1 ',1,   1,   1,   143.882,    47.134,     0.000,     0.000,     0.000,     0.000,   1
    72,'1 ',1,   1,   1,    70.701,    23.567,     0.000,     0.000,     0.000,     0.000,   1
    73,'1 ',1,   1,   1,   277.841,    88.066,     0.000,     0.000,     0.000,     0.000,   1
    76,'1 ',1,   1,   1,   257.995,   132.719,     0.000,     0.000,     0.000,     0.000,   1
    77,'1 ',1,   1,   1,    91.787,    34.730,     0.000,     0.000,     0.000,     0.000,   1
    79,'1 ',1,   1,   1,    59.537,    17.365,     0.000,     0.000,     0.000,     0.000,   1
    80,'1 ',1,   1,   1,    34.730,     8.683,     0.000,     0.000,     0.000,     0.000,   1
    84,'1 ',1,   1,   1,    45.893,    16.125,     0.000,     0.000,     0.000,     0.000,   1
    89,'1 ',1,   1,   1,    54.824,     0.000,     0.000,     0.000,     0.000,     0.000,   1
    90,'1 ',1,   1,   1,    81.864,     0.000,     0.000,     0.000,     0.000,     0.000,   1
    91,'1 ',1,   1,   1,    21.582,     0.000,     0.000,     0.000,     0.000,     0.000,   1
    92,'1 ',1,   1,   1,    19.598,     0.000,     0.000,     0.000,     0.000,     0.000,   1
    94,'1 ',1,   1,   1,    74.794,     0.000,     0.000,     0.000,     0.000,     0.000,   1
    97,'1 ',1,   1,   1,    49.490,     0.000,     0.000,     0.000,     0.000,     0.000,   1
    98,'1 ',1,   1,   1,    82.732,     0.000,     0.000,     0.000,     0.000,     0.000,   1
    99,'1 ',1,   1,   1,   103.570,     0.000,     0.000,     0.000,     0.000,     0.000,   1
   102,'1 ',1,   1,   1,    96.500,     0.000,     0.000,     0.000,     0.000,     0.000,   1
   103,'1 ',1,   1,   1,    39.692,     0.000,     0.000,     0.000,     0.000,     0.000,   1
   104,'1 ',1,   1,   1,    10.667,     0.000,     0.000,     0.000,     0.000,     0.000,   1
   105,'1 ',1,   1,   1,    61.522,     0.000,     0.000,     0.000,     0.000,     0.000,   1
   107,'1 ',1,   1,   1,     5.706,     0.000,     0.000,     0.000,     0.000,     0.000,   1
   108,'1 ',1,   1,   1,   139.045,     0.000,     0.000,     0.000,     0.000,     0.000,   1
   109,'1 ',1,   1,   1,    38.079,     0.000,     0.000,     0.000,     0.000,     0.000,   1
   110,'1 ',1,   1,   1,    78.143,     0.000,     0.000,     0.000,     0.000,     0.000,   1
   112,'1 ',1,   1,   1,    24.311,     0.000,     0.000,     0.000,     0.000,     0.000,   1
   113,'1 ',1,   1,   1,    27.000,     0.000,     0.000,     0.000,     0.000,     0.000,   1
   114,'1 ',1,   1,   1,    22.575,     0.000,     0.000,     0.000,     0.000,     0.000,   1
   118,'1 ',1,   2,   2,    14.100,   650.000,     0.000,     0.000,     0.000,     0.000,   1
   119,'1 ',1,   2,   2,   100.300,    34.400,     0.000,     0.000,     0.000,     0.000,   1
   121,'1 ',1,   2,   2,   535.000,    55.000,     0.000,     0.000,     0.000,     0.000,   1
   122,'1 ',1,   2,   2,   229.100,    11.800,     0.000,     0.000,     0.000,     0.000,   1
   123,'1 ',1,   2,   2,    78.000,     1.400,     0.000,     0.000,     0.000,     0.000,   1
   124,'1 ',1,   2,   2,   276.400,    59.300,     0.000,     0.000,     0.000,     0.000,   1
   125,'1 ',1,   2,   2,   514.800,    82.700,     0.000,     0.000,     0.000,     0.000,   1
   126,'1 ',1,   2,   2,    57.900,     5.100,     0.000,     0.000,     0.000,     0.000,   1
   127,'1 ',1,   2,   2,   380.800,    37.000,     0.000,     0.000,     0.000,     0.000,   1
   135,'1 ',1,   2,   2,   169.200,    41.600,     0.000,     0.000,     0.000,     0.000,   1
   136,'1 ',1,   2,   2,    55.200,    18.200,     0.000,     0.000,     0.000,     0.000,   1
   137,'1 ',1,   2,   2,   273.600,    99.800,     0.000,     0.000,     0.000,     0.000,   1
   138,'1 ',1,   2,   2,   826.700,   135.200,     0.000,     0.000,     0.000,     0.000,   1
   139,'1 ',1,   2,   2,   595.000,    83.300,     0.000,     0.000,     0.000,     0.000,   1
   140,'1 ',1,   2,   2,   387.700,   114.700,     0.000,     0.000,     0.000,     0.000,   1
   141,'1 ',1,   2,   2,   145.000,    58.000,     0.000,     0.000,     0.000,     0.000,   1
   142,'1 ',1,   2,   2,    56.500,    24.500,     0.000,     0.000,     0.000,     0.000,   1
   143,'1 ',1,   2,   2,    89.500,    35.500,     0.000,     0.000,     0.000,     0.000,   1
   145,'1 ',1,   2,   2,    24.000,    14.000,     0.000,     0.000,     0.000,     0.000,   1
   148,'1 ',1,   2,   2,    63.000,    25.000,     0.000,     0.000,     0.000,     0.000,   1
   152,'1 ',1,   2,   2,    17.000,     9.000,     0.000,     0.000,     0.000,     0.000,   1
   154,'1 ',1,   2,   2,    70.000,     5.000,     0.000,     0.000,     0.000,     0.000,   1
   155,'1 ',1,   2,   2,   200.000,    50.000,     0.000,     0.000,     0.000,     0.000,   1
   156,'1 ',1,   2,   2,    75.000,    50.000,     0.000,     0.000,     0.000,     0.000,   1
   157,'1 ',1,   2,   2,   123.500,    24.300,     0.000,     0.000,     0.000,     0.000,   1
   159,'1 ',1,   2,   2,    33.000,    16.500,     0.000,     0.000,     0.000,     0.000,   1
   161,'1 ',1,   2,   2,    35.000,    15.000,     0.000,     0.000,     0.000,     0.000,   1
   162,'1 ',1,   2,   2,    85.000,    24.000,     0.000,     0.000,     0.000,     0.000,   1
   163,'1 ',1,   2,   2,     0.000,     0.400,     0.000,     0.000,     0.000,     0.000,   1
   167,'1 ',1,   2,   2,   299.900,    95.700,     0.000,     0.000,     0.000,     0.000,   1
   170,'1 ',1,   2,   2,   481.800,   205.000,     0.000,     0.000,     0.000,     0.000,   1
   171,'1 ',1,   2,   2,   763.600,   291.100,     0.000,     0.000,     0.000,     0.000,   1
   172,'1 ',1,   2,   2,    26.500,     0.000,     0.000,     0.000,     0.000,     0.000,   1
   173,'1 ',1,   2,   2,   163.500,    43.000,     0.000,     0.000,     0.000,     0.000,   1
   175,'1 ',1,   2,   2,   176.000,    83.000,     0.000,     0.000,     0.000,     0.000,   1
   176,'1 ',1,   2,   2,     5.000,     4.000,     0.000,     0.000,     0.000,     0.000,   1
   177,'1 ',1,   2,   2,    28.000,    12.000,     0.000,     0.000,     0.000,     0.000,   1
   178,'1 ',1,   2,   2,   427.400,   173.600,     0.000,     0.000,     0.000,     0.000,   1
   179,'1 ',1,   2,   2,    74.000,    29.000,     0.000,     0.000,     0.000,     0.000,   1
   180,'1 ',1,   2,   2,    69.500,    49.300,     0.000,     0.000,     0.000,     0.000,   1
   181,'1 ',1,   2,   2,    73.400,     0.000,     0.000,     0.000,     0.000,     0.000,   1
   182,'1 ',1,   2,   2,   240.700,    89.000,     0.000,     0.000,     0.000,     0.000,   1
   183,'1 ',1,   2,   2,    40.000,     4.000,     0.000,     0.000,     0.000,     0.000,   1
   184,'1 ',1,   2,   2,   136.800,    16.600,     0.000,     0.000,     0.000,     0.000,   1
   186,'1 ',1,   2,   2,    59.800,    24.300,     0.000,     0.000,     0.000,     0.000,   1
   187,'1 ',1,   2,   2,    59.800,    24.300,     0.000,     0.000,     0.000,     0.000,   1
   188,'1 ',1,   2,   2,   182.600,    43.600,     0.000,     0.000,     0.000,     0.000,   1
   189,'1 ',1,   3,   3,     7.000,     2.000,     0.000,     0.000,     0.000,     0.000,   1
   191,'1 ',1,   3,   3,   489.000,    53.000,     0.000,     0.000,     0.000,     0.000,   1
   192,'1 ',1,   3,   3,   800.000,    72.000,     0.000,     0.000,     0.000,     0.000,   1
   196,'1 ',1,   3,   3,    10.000,     3.000,     0.000,     0.000,     0.000,     0.000,   1
   197,'1 ',1,   3,   3,    43.000,    14.000,     0.000,     0.000,     0.000,     0.000,   1
   198,'1 ',1,   3,   3,    64.000,    21.000,     0.000,     0.000,     0.000,     0.000,   1
   199,'1 ',1,   3,   3,    35.000,    12.000,     0.000,     0.000,     0.000,     0.000,   1
   200,'1 ',1,   3,   3,    27.000,    12.000,     0.000,     0.000,     0.000,     0.000,   1
   201,'1 ',1,   1,   1,    50.855,    17.365,     0.000,     0.000,     0.000,     0.000,   1
   202,'1 ',1,   3,   3,    38.000,    13.000,     0.000,     0.000,     0.000,     0.000,   1
   203,'1 ',1,   3,   3,    42.000,    14.000,     0.000,     0.000,     0.000,     0.000,   1
   204,'1 ',1,   3,   3,    72.000,    24.000,     0.000,     0.000,     0.000,     0.000,   1
   205,'1 ',1,   3,   3,     0.000,    -5.000,     0.000,     0.000,     0.000,     0.000,   1
   206,'1 ',1,   3,   3,    12.000,     2.000,     0.000,     0.000,     0.000,     0.000,   1
   207,'1 ',1,   1,   1,   -26.048,   -17.613,     0.000,     0.000,     0.000,     0.000,   1
   208,'1 ',1,   3,   3,     7.000,     2.000,     0.000,     0.000,     0.000,     0.000,   1
   209,'1 ',1,   3,   3,    38.000,    13.000,     0.000,     0.000,     0.000,     0.000,   1
   211,'1 ',1,   3,   3,    96.000,     7.000,     0.000,     0.000,     0.000,     0.000,   1
   214,'1 ',1,   3,   3,    22.000,    16.000,     0.000,     0.000,     0.000,     0.000,   1
   215,'1 ',1,   3,   3,    47.000,    26.000,     0.000,     0.000,     0.000,     0.000,   1
   216,'1 ',1,   3,   3,   176.000,   105.000,     0.000,     0.000,     0.000,     0.000,   1
   217,'1 ',1,   3,   3,   100.000,    75.000,     0.000,     0.000,     0.000,     0.000,   1
   218,'1 ',1,   3,   3,   131.000,    96.000,     0.000,     0.000,     0.000,     0.000,   1
   220,'1 ',1,   3,   3,   285.000,   100.000,     0.000,     0.000,     0.000,     0.000,   1
   221,'1 ',1,   3,   3,   171.000,    70.000,     0.000,     0.000,     0.000,     0.000,   1
   222,'1 ',1,   3,   3,   328.000,   188.000,     0.000,     0.000,     0.000,     0.000,   1
   223,'1 ',1,   3,   3,   428.000,   232.000,     0.000,     0.000,     0.000,     0.000,   1
   224,'1 ',1,   3,   3,   173.000,    99.000,     0.000,     0.000,     0.000,     0.000,   1
   225,'1 ',1,   3,   3,   410.000,    40.000,     0.000,     0.000,     0.000,     0.000,   1
   227,'1 ',1,   3,   3,   538.000,   369.000,     0.000,     0.000,     0.000,     0.000,   1
   228,'1 ',1,   3,   3,   223.000,   148.000,     0.000,     0.000,     0.000,     0.000,   1
   229,'1 ',1,   3,   3,    96.000,    46.000,     0.000,     0.000,     0.000,     0.000,   1
   231,'1 ',1,   3,   3,   159.000,   107.000,     0.000,     0.000,     0.000,     0.000,   1
   232,'1 ',1,   3,   3,   448.000,   143.000,     0.000,     0.000,     0.000,     0.000,   1
   233,'1 ',1,   3,   3,   404.000,   212.000,     0.000,     0.000,     0.000,     0.000,   1
   234,'1 ',1,   3,   3,   572.000,   244.000,     0.000,     0.000,     0.000,     0.000,   1
   235,'1 ',1,   3,   3,   269.000,   157.000,     0.000,     0.000,     0.000,     0.000,   1
   238,'1 ',1,   3,   3,   255.000,   149.000,     0.000,     0.000,     0.000,     0.000,   1
   243,'1 ',1,   3,   3,     8.000,     3.000,     0.000,     0.000,     0.000,     0.000,   1
   245,'1 ',1,   3,   3,    61.000,    30.000,     0.000,     0.000,     0.000,     0.000,   1
   246,'1 ',1,   3,   3,    77.000,    33.000,     0.000,     0.000,     0.000,     0.000,   1
   247,'1 ',1,   3,   3,    61.000,    30.000,     0.000,     0.000,     0.000,     0.000,   1
   248,'1 ',1,   3,   3,    29.000,    14.000,     0.000,     0.000,     0.000,     0.000,   1
   249,'1 ',1,   3,   3,    29.000,    14.000,     0.000,     0.000,     0.000,     0.000,   1
   250,'1 ',1,   3,   3,   -23.000,   -17.000,     0.000,     0.000,     0.000,     0.000,   1
   281,'1 ',1,   3,   3,   -33.100,   -29.400,     0.000,     0.000,     0.000,     0.000,   1
   319,'1 ',1,   1,   1,   143.634,   -29.769,     0.000,     0.000,     0.000,     0.000,   1
   320,'1 ',1,   1,   1,     2.977,   -15.629,     0.000,     0.000,     0.000,     0.000,   1
   322,'1 ',1,   1,   1,     2.977,    -4.837,     0.000,     0.000,     0.000,     0.000,   1
   323,'1 ',1,   1,   1,   -18.481,    32.870,     0.000,     0.000,     0.000,     0.000,   1
   324,'1 ',1,   1,   1,    30.637,    -1.488,     0.000,     0.000,     0.000,     0.000,   1
   526,'1 ',1,   1,   1,   146.000,   -40.000,     0.000,     0.000,     0.000,     0.000,   1
   528,'1 ',1,   1,   1,    28.100,   -20.500,     0.000,     0.000,     0.000,     0.000,   1
   531,'1 ',1,   1,   1,    17.365,     3.101,     0.000,     0.000,     0.000,     0.000,   1
   552,'1 ',1,   1,   1,   -13.768,    -1.737,     0.000,     0.000,     0.000,     0.000,   1
   562,'1 ',1,   1,   1,    50.500,    17.400,     0.000,     0.000,     0.000,     0.000,   1
   609,'1 ',1,   1,   1,    36.715,     0.744,     0.000,     0.000,     0.000,     0.000,   1
   664,'1 ',1,   3,   3,  -113.700,    76.700,     0.000,     0.000,     0.000,     0.000,   1
  1190,'1 ',1,   1,   1,   124.421,    36.181,     0.000,     0.000,     0.000,     0.000,   1
  1200,'1 ',1,   1,   1,  -124.036,    42.383,     0.000,     0.000,     0.000,     0.000,   1
  9003,'1 ',1,   1,   9,     2.710,     0.940,     0.000,     0.000,     0.000,     0.000,   1
  9004,'1 ',1,   1,   9,     0.860,     0.280,     0.000,     0.000,     0.000,     0.000,   1
  9021,'1 ',1,   1,   9,     4.750,     1.560,     0.000,     0.000,     0.000,     0.000,   1
  9022,'1 ',1,   1,   9,     1.530,     0.530,     0.000,     0.000,     0.000,     0.000,   1
  9024,'1 ',1,   1,   9,     1.350,     0.470,     0.000,     0.000,     0.000,     0.000,   1
  9025,'1 ',1,   1,   9,     0.450,     0.160,     0.000,     0.000,     0.000,     0.000,   1
  9026,'1 ',1,   1,   9,     0.450,     0.160,     0.000,     0.000,     0.000,     0.000,   1
  9031,'1 ',1,   1,   9,     1.840,     0.640,     0.000,     0.000,     0.000,     0.000,   1
  9032,'1 ',1,   1,   9,     1.390,     0.480,     0.000,     0.000,     0.000,     0.000,   1
  9033,'1 ',1,   1,   9,     1.890,     0.650,     0.000,     0.000,     0.000,     0.000,   1
  9034,'1 ',1,   1,   9,     1.550,     0.540,     0.000,     0.000,     0.000,     0.000,   1
  9035,'1 ',1,   1,   9,     1.660,     0.580,     0.000,     0.000,     0.000,     0.000,   1
  9036,'1 ',1,   1,   9,     3.030,     1.000,     0.000,     0.000,     0.000,     0.000,   1
  9037,'1 ',1,   1,   9,     1.860,     0.640,     0.000,     0.000,     0.000,     0.000,   1
  9038,'1 ',1,   1,   9,     2.580,     0.890,     0.000,     0.000,     0.000,     0.000,   1
  9041,'1 ',1,   1,   9,     1.010,     0.350,     0.000,     0.000,     0.000,     0.000,   1
  9042,'1 ',1,   1,   9,     0.810,     0.280,     0.000,     0.000,     0.000,     0.000,   1
  9043,'1 ',1,   1,   9,     1.600,     0.520,     0.000,     0.000,     0.000,     0.000,   1
  9052,'1 ',1,   1,   9,    30.000,    23.000,     0.000,     0.000,     0.000,     0.000,   1
  9071,'1 ',1,   1,   9,     1.020,     0.350,     0.000,     0.000,     0.000,     0.000,   1
  9072,'1 ',1,   1,   9,     1.020,     0.350,     0.000,     0.000,     0.000,     0.000,   1
  9121,'1 ',1,   1,   9,     3.800,     1.250,     0.000,     0.000,     0.000,     0.000,   1
  9533,'1 ',1,   1,   9,     1.190,     0.410,     0.000,     0.000,     0.000,     0.000,   1
 0 /End of Load data, Begin Generator data
 10000,'1 ',    -5.000,    74.459,    81.905,   -10.000,1.01530,     0,    89.552,   0.00140,   0.12000,   0.00000,   0.00000,1.00000,1,  100.0,  9999.000, -9999.000,   1,1.0000
 10001,'1 ',    -5.000,    45.086,    49.595,   -20.000,1.02050,     0,    54.435,   0.00140,   0.12000,   0.00000,   0.00000,1.00000,1,  100.0,  9999.000, -9999.000,   1,1.0000
 10002,'1 ',   -10.000,   135.605,   149.166,   -20.000,1.00100,     0,   163.168,   0.00140,   0.12000,   0.00000,   0.00000,1.00000,1,  100.0,  9999.000, -9999.000,   1,1.0000
 10003,'1 ',     0.000,    42.501,    46.751,   -25.000,0.95830,     0,    51.001,   0.00140,   0.12000,   0.00000,   0.00000,1.00000,1,  100.0,  9999.000, -9999.000,   1,1.0000
 10004,'1 ',     0.000,   131.018,   144.120,    12.000,0.96320,     0,   157.222,   0.00140,   0.12000,   0.00000,   0.00000,1.00000,1,  100.0,  9999.000, -9999.000,   1,1.0000
 10005,'1 ',   400.390,   152.726,   240.000,  -240.000,1.02500,     0,   835.000,   0.00190,   0.33900,   0.00000,   0.00000,1.00000,1,  100.0,  9999.000, -9999.000,   1,1.0000
 10006,'1 ',   165.495,    63.578,    96.000,   -11.000,1.05200,     0,   270.000,   0.00160,   0.18500,   0.00000,   0.00000,1.00000,1,  100.0,  9999.000, -9999.000,   1,1.0000
 10007,'1 ',   309.635,    48.548,   153.000,  -153.000,1.05200,     0,   410.000,   0.00190,   0.22840,   0.00000,   0.00000,1.00000,1,  100.0,  9999.000, -9999.000,   1,1.0000
 10008,'1 ',    72.604,     4.510,    56.000,   -30.000,1.00000,     0,   125.000,   0.00400,   0.13400,   0.00000,   0.00000,1.00000,1,  100.0,  9999.000, -9999.000,   1,1.0000
 10009,'1 ',   124.922,    64.753,    77.000,   -24.000,0.99000,     0,   270.000,   0.00160,   0.18500,   0.00000,   0.00000,1.00000,1,  100.0,  9999.000, -9999.000,   1,1.0000
 10010,'1 ',  2060.675,  1237.403,  2200.000,  -500.000,1.04350,     0,  2911.000,   0.00100,   0.19300,   0.00000,   0.00000,1.00000,1,  100.0,  9999.000, -9999.000,   1,1.0000
 10011,'1 ',   256.250,   182.569,   200.826,   -60.000,1.02330,     0,   410.000,   0.00190,   0.22840,   0.00000,   0.00000,1.00000,1,  100.0,  9999.000, -9999.000,   1,1.0000
 10012,'1 ',     0.000,   361.727,   397.900,   -25.000,1.01030,     0,   434.072,   0.00140,   0.12000,   0.00000,   0.00000,1.00000,1,  100.0,  9999.000, -9999.000,   1,1.0000
 10013,'1 ',  -925.030,   367.427,   404.170,  -125.000,1.05500,     0,  1194.397,   0.00100,   0.19300,   0.00000,   0.00000,1.00000,1,  100.0,  9999.000, -9999.000,   1,1.0000
 10014,'1 ',   300.026,    65.914,    75.000,   -50.000,1.05100,     0,   410.000,   0.00190,   0.22840,   0.00000,   0.00000,1.00000,1,  100.0,  9999.000, -9999.000,   1,1.0000
 10015,'1 ',   743.124,   145.212,   300.000,  -100.000,1.04350,     0,   911.000,   0.00100,   0.19300,   0.00000,   0.00000,1.00000,1,  100.0,  9999.000, -9999.000,   1,1.0000
 10016,'1 ',    89.687,    37.141,    40.855,   -15.000,1.05280,     0,   125.000,   0.00400,   0.13400,   0.00000,   0.00000,1.00000,1,  100.0,  9999.000, -9999.000,   1,1.0000
 10017,'1 ',   231.692,   -49.743,   100.000,   -50.000,1.05280,     0,   410.000,   0.00190,   0.22840,   0.00000,   0.00000,1.00000,1,  100.0,  9999.000, -9999.000,   1,1.0000
 10018,'1 ',   109.974,    49.247,    50.000,   -25.000,1.07350,     0,   270.000,   0.00160,   0.18500,   0.00000,   0.00000,1.00000,1,  100.0,  9999.000, -9999.000,   1,1.0000
 10019,'1 ',   397.187,   -48.958,   175.000,   -50.000,1.05350,     0,   835.000,   0.00190,   0.33900,   0.00000,   0.00000,1.00000,1,  100.0,  9999.000, -9999.000,   1,1.0000
 10020,'1 ',   230.625,   -20.414,    90.000,   -50.000,1.04350,     0,   410.000,   0.00190,   0.22840,   0.00000,   0.00000,1.00000,1,  100.0,  9999.000, -9999.000,   1,1.0000
 10021,'1 ',     0.000,    30.115,    33.127,   -10.000,0.96300,     0,    36.138,   0.00140,   0.12000,   0.00000,   0.00000,1.00000,1,  100.0,  9999.000, -9999.000,   1,1.0000
 10022,'1 ',   218.880,    88.548,    90.000,   -40.000,0.92900,     0,   410.000,   0.00190,   0.22840,   0.00000,   0.00000,1.00000,1,  100.0,  9999.000, -9999.000,   1,1.0000
 10023,'1 ',     0.000,   146.721,   150.000,   -50.000,0.98290,     0,   176.066,   0.00140,   0.12000,   0.00000,   0.00000,1.00000,1,  100.0,  9999.000, -9999.000,   1,1.0000
 10024,'1 ',   243.437,    38.261,    90.000,   -45.000,1.05220,     0,   410.000,   0.00190,   0.22840,   0.00000,   0.00000,1.00000,1,  100.0,  9999.000, -9999.000,   1,1.0000
 10025,'1 ',    89.687,    36.341,    39.975,   -15.000,1.00770,     0,   270.000,   0.00160,   0.18500,   0.00000,   0.00000,1.00000,1,  100.0,  9999.000, -9999.000,   1,1.0000
 10026,'1 ',   213.541,    34.921,    80.000,   -50.000,1.05220,     0,   410.000,   0.00190,   0.22840,   0.00000,   0.00000,1.00000,1,  100.0,  9999.000, -9999.000,   1,1.0000
 10027,'1 ',  1281.249,   281.951,   400.000,  -100.000,1.06500,     0,  1911.000,   0.00100,   0.19300,   0.00000,   0.00000,1.00000,1,  100.0,  9999.000, -9999.000,   1,1.0000
 10028,'1 ',  1281.249,   349.966,   400.000,  -100.000,1.06500,     0,  1911.000,   0.00100,   0.19300,   0.00000,   0.00000,1.00000,1,  100.0,  9999.000, -9999.000,   1,1.0000
 10029,'1 ',   507.161,   -30.761,   300.000,  -300.000,1.05510,     0,   835.000,   0.00190,   0.33900,   0.00000,   0.00000,1.00000,1,  100.0,  9999.000, -9999.000,   1,1.0000
 10030,'1 ',  2106.586,   838.369,  1000.000, -1000.000,1.04350,     0,  2911.000,   0.00100,   0.19300,   0.00000,   0.00000,1.00000,1,  100.0,  9999.000, -9999.000,   1,1.0000
 10031,'1 ',   452.708,   118.047,   260.000,  -260.000,1.01500,     0,   835.000,   0.00190,   0.33900,   0.00000,   0.00000,1.00000,1,  100.0,  9999.000, -9999.000,   1,1.0000
 10032,'1 ',   290.416,    46.127,   150.000,  -150.000,1.01000,     0,   512.000,   0.00400,   0.20000,   0.00000,   0.00000,1.00000,1,  100.0,  9999.000, -9999.000,   1,1.0000
 10033,'1 ',   106.771,    50.744,    60.000,   -60.000,1.00800,     0,   270.000,   0.00160,   0.18500,   0.00000,   0.00000,1.00000,1,  100.0,  9999.000, -9999.000,   1,1.0000
 10034,'1 ',   480.468,   207.658,   320.000,  -320.000,1.00000,     0,   835.000,   0.00190,   0.33900,   0.00000,   0.00000,1.00000,1,  100.0,  9999.000, -9999.000,   1,1.0000
 10035,'1 ',   266.927,   144.399,   300.000,  -300.000,1.05000,     0,   410.000,   0.00190,   0.22840,   0.00000,   0.00000,1.00000,1,  100.0,  9999.000, -9999.000,   1,1.0000
 10036,'1 ',   323.515,   253.080,   300.000,  -300.000,1.00000,     0,   512.000,   0.00400,   0.20000,   0.00000,   0.00000,1.00000,1,  100.0,  9999.000, -9999.000,   1,1.0000
 10037,'1 ',   368.359,    46.844,   250.000,  -250.000,1.04000,     0,   835.000,   0.00190,   0.33900,   0.00000,   0.00000,1.00000,1,  100.0,  9999.000, -9999.000,   1,1.0000
 10038,'1 ',   320.312,   132.417,   500.000,  -500.000,1.00000,     0,   512.000,   0.00400,   0.20000,   0.00000,   0.00000,1.00000,1,  100.0,  9999.000, -9999.000,   1,1.0000
 10039,'1 ',   640.624,   307.231,   337.954,  -300.000,1.01650,     0,   911.000,   0.00100,   0.19300,   0.00000,   0.00000,1.00000,1,  100.0,  9999.000, -9999.000,   1,1.0000
 10040,'1 ',   266.927,   159.978,   200.000,  -200.000,1.01000,     0,   410.000,   0.00190,   0.22840,   0.00000,   0.00000,1.00000,1,  100.0,  9999.000, -9999.000,   1,1.0000
 10041,'1 ',   587.239,    70.725,   400.000,  -400.000,1.00000,     0,   911.000,   0.00100,   0.19300,   0.00000,   0.00000,1.00000,1,  100.0,  9999.000, -9999.000,   1,1.0000
 10042,'1 ',   613.697,   -26.022,   600.000,  -600.000,1.05000,     0,   911.000,   0.00100,   0.19300,   0.00000,   0.00000,1.00000,1,  100.0,  9999.000, -9999.000,   1,1.0000
 10043,'1 ',   181.510,    57.724,   100.000,    40.000,0.99300,     0,   410.000,   0.00190,   0.22840,   0.00000,   0.00000,1.00000,1,  100.0,  9999.000, -9999.000,   1,1.0000
 10044,'1 ',    89.687,    51.967,    80.000,    40.000,1.01000,     0,   270.000,   0.00160,   0.18500,   0.00000,   0.00000,1.00000,1,  100.0,  9999.000, -9999.000,   1,1.0000
 10045,'1 ',   498.619,   178.432,   210.000,  -210.000,1.05070,     0,   835.000,   0.00190,   0.33900,   0.00000,   0.00000,1.00000,1,  100.0,  9999.000, -9999.000,   1,1.0000
 10046,'1 ',   665.182,   108.137,   280.000,  -280.000,1.05070,     0,   911.000,   0.00100,   0.19300,   0.00000,   0.00000,1.00000,1,  100.0,  9999.000, -9999.000,   1,1.0000
 10047,'1 ',  1291.926,   480.134,   528.147,  -420.000,1.03230,     0,  1511.000,   0.00100,   0.19300,   0.00000,   0.00000,1.00000,1,  100.0,  9999.000, -9999.000,   1,1.0000
 10048,'1 ',   249.843,    69.599,   100.000,  -100.000,1.01450,     0,   410.000,   0.00190,   0.22840,   0.00000,   0.00000,1.00000,1,  100.0,  9999.000, -9999.000,   1,1.0000
 10049,'1 ',   397.187,   220.992,   224.000,  -224.000,1.05070,     0,   835.000,   0.00190,   0.33900,   0.00000,   0.00000,1.00000,1,  100.0,  9999.000, -9999.000,   1,1.0000
 10050,'1 ',   352.343,   481.284,   529.412,     0.000,1.05070,     0,   835.000,   0.00190,   0.33900,   0.00000,   0.00000,1.00000,1,  100.0,  9999.000, -9999.000,   1,1.0000
 10051,'1 ',   197.526,    18.894,   120.000,     0.000,1.05070,     0,   410.000,   0.00190,   0.22840,   0.00000,   0.00000,1.00000,1,  100.0,  9999.000, -9999.000,   1,1.0000
 10052,'1 ',   437.760,   122.248,   224.000,  -224.000,1.02900,     0,   835.000,   0.00190,   0.33900,   0.00000,   0.00000,1.00000,1,  100.0,  9999.000, -9999.000,   1,1.0000
 10053,'1 ',   533.854,   189.363,   200.000,  -200.000,1.05000,     0,   835.000,   0.00190,   0.33900,   0.00000,   0.00000,1.00000,1,  100.0,  9999.000, -9999.000,   1,1.0000
 10054,'1 ',    39.505,    49.259,    54.185,     0.000,1.01450,     0,   125.000,   0.00400,   0.13400,   0.00000,   0.00000,1.00000,1,  100.0,  9999.000, -9999.000,   1,1.0000
 10055,'1 ',   564.061,    73.336,    80.669,     0.000,1.05070,     0,   835.000,   0.00190,   0.33900,   0.00000,   0.00000,1.00000,1,  100.0,  9999.000, -9999.000,   1,1.0000
 10056,'1 ',    48.047,    33.230,    36.553,     0.000,0.99670,     0,   125.000,   0.00400,   0.13400,   0.00000,   0.00000,1.00000,1,  100.0,  9999.000, -9999.000,   1,1.0000
 10057,'1 ',   176.172,   110.031,   121.034,   -90.000,1.02120,     0,   410.000,   0.00190,   0.22840,   0.00000,   0.00000,1.00000,1,  100.0,  9999.000, -9999.000,   1,1.0000
 10058,'1 ',   427.083,   179.285,   197.213,  -150.000,1.01450,     0,   835.000,   0.00190,   0.33900,   0.00000,   0.00000,1.00000,1,  100.0,  9999.000, -9999.000,   1,1.0000
 10059,'1 ',   427.083,   179.059,   196.965,     0.000,1.00170,     0,   835.000,   0.00190,   0.33900,   0.00000,   0.00000,1.00000,1,  100.0,  9999.000, -9999.000,   1,1.0000
 10060,'1 ',   123.854,   105.323,   115.856,     0.000,0.98930,     0,   270.000,   0.00160,   0.18500,   0.00000,   0.00000,1.00000,1,  100.0,  9999.000, -9999.000,   1,1.0000
 10061,'1 ',  1379.478,   353.131,   600.000,  -100.000,1.05070,     0,  1511.000,   0.00100,   0.19300,   0.00000,   0.00000,1.00000,1,  100.0,  9999.000, -9999.000,   1,1.0000
 10062,'1 ',   747.395,   294.722,   325.000,  -125.000,1.05070,     0,   911.000,   0.00100,   0.19300,   0.00000,   0.00000,1.00000,1,  100.0,  9999.000, -9999.000,   1,1.0000
 10063,'1 ',   590.442,   164.658,   300.000,  -200.000,1.01450,     0,   911.000,   0.00100,   0.19300,   0.00000,   0.00000,1.00000,1,  100.0,  9999.000, -9999.000,   1,1.0000
 10064,'1 ',    -4.200,     3.340,     3.674,    -2.000,0.99450,     0,    25.000,   0.00140,   0.12000,   0.00000,   0.00000,1.00000,1,  100.0,  9999.000, -9999.000,   1,1.0000
 10065,'1 ',   -35.810,    17.979,    19.777,   -17.350,1.00000,     0,   125.000,   0.00400,   0.13400,   0.00000,   0.00000,1.00000,1,  100.0,  9999.000, -9999.000,   1,1.0000
 10066,'1 ',   -26.480,    13.825,    15.208,   -12.800,1.00000,     0,   125.000,   0.00400,   0.13400,   0.00000,   0.00000,1.00000,1,  100.0,  9999.000, -9999.000,   1,1.0000
 10067,'1 ',    53.385,    26.349,    38.000,   -38.000,1.00000,     0,   125.000,   0.00400,   0.13400,   0.00000,   0.00000,1.00000,1,  100.0,  9999.000, -9999.000,   1,1.0000
 10068,'1 ',     8.542,     4.882,     6.000,    -6.000,1.00000,     0,    25.000,   0.00140,   0.12000,   0.00000,   0.00000,1.00000,1,  100.0,  9999.000, -9999.000,   1,1.0000
 0 /End of Generator data, Begin Branch data
     1,      5,'1 ',   0.00100,   0.00600,   0.00000,    0.00,    0.00,    0.00,  0.00000,  0.00000,  0.00000,  0.00000,1,   0.00,   1,1.0000
     2,      6,'1 ',   0.00100,   0.00900,   0.00000,    0.00,    0.00,    0.00,  0.00000,  0.00000,  0.00000,  0.00000,1,   0.00,   1,1.0000
     2,      8,'1 ',   0.00600,   0.02700,   0.05400,    0.00,    0.00,    0.00,  0.00000,  0.00000,  0.00000,  0.00000,1,   0.00,   1,1.0000
     3,      7,'1 ',   0.00000,   0.00300,   0.00000,    0.00,    0.00,    0.00,  0.00000,  0.00000,  0.00000,  0.00000,1,   0.00,   1,1.0000
     3,     19,'1 ',   0.00800,   0.06900,   0.13900,    0.00,    0.00,    0.00,  0.00000,  0.00000,  0.00000,  0.00000,1,   0.00,   1,1.0000
     3,    150,'1 ',   0.00100,   0.00700,   0.00000,    0.00,    0.00,    0.00,  0.00000,  0.00000,  0.00000,  0.00000,1,   0.00,   1,1.0000
     4,     16,'1 ',   0.00200,   0.01900,   1.12700,    0.00,    0.00,    0.00,  0.00000,  0.00000,  0.00000,  0.00000,1,   0.00,   1,1.0000
     5,      9,'1 ',   0.00600,   0.02900,   0.01800,    0.00,    0.00,    0.00,  0.00000,  0.00000,  0.00000,  0.00000,1,   0.00,   1,1.0000
     7,     12,'1 ',   0.00100,   0.00900,   0.07000,    0.00,    0.00,    0.00,  0.00000,  0.00000,  0.00000,  0.00000,1,   0.00,   1,1.0000
     7,    131,'1 ',   0.00100,   0.00700,   0.01400,    0.00,    0.00,    0.00,  0.00000,  0.00000,  0.00000,  0.00000,1,   0.00,   1,1.0000
     8,     11,'1 ',   0.01300,   0.05950,   0.03300,    0.00,    0.00,    0.00,  0.00000,  0.00000,  0.00000,  0.00000,1,   0.00,   1,1.0000
     8,     14,'1 ',   0.01300,   0.04200,   0.08100,    0.00,    0.00,    0.00,  0.00000,  0.00000,  0.00000,  0.00000,1,   0.00,   1,1.0000
     9,     11,'1 ',   0.00600,   0.02700,   0.01300,    0.00,    0.00,    0.00,  0.00000,  0.00000,  0.00000,  0.00000,1,   0.00,   1,1.0000
    11,     13,'1 ',   0.00800,   0.03400,   0.01800,    0.00,    0.00,    0.00,  0.00000,  0.00000,  0.00000,  0.00000,1,   0.00,   1,1.0000
    12,     21,'1 ',   0.00200,   0.01500,   0.11800,    0.00,    0.00,    0.00,  0.00000,  0.00000,  0.00000,  0.00000,1,   0.00,   1,1.0000
    13,     20,'1 ',   0.00600,   0.03400,   0.01600,    0.00,    0.00,    0.00,  0.00000,  0.00000,  0.00000,  0.00000,1,   0.00,   1,1.0000
    14,     15,'1 ',   0.01400,   0.04200,   0.09700,    0.00,    0.00,    0.00,  0.00000,  0.00000,  0.00000,  0.00000,1,   0.00,   1,1.0000
    15,     37,'1 ',   0.06500,   0.24800,   0.12100,    0.00,    0.00,    0.00,  0.00000,  0.00000,  0.00000,  0.00000,1,   0.00,   1,1.0000
    15,     89,'1 ',   0.09900,   0.24800,   0.03500,    0.00,    0.00,    0.00,  0.00000,  0.00000,  0.00000,  0.00000,1,   0.00,   1,1.0000
    15,     90,'1 ',   0.09600,   0.36300,   0.04800,    0.00,    0.00,    0.00,  0.00000,  0.00000,  0.00000,  0.00000,1,   0.00,   1,1.0000
    16,     42,'1 ',   0.00200,   0.02200,   1.28000,    0.00,    0.00,    0.00,  0.00000,  0.00000,  0.00000,  0.00000,1,   0.00,   1,1.0000
    19,     21,'1 ',   0.00200,   0.01800,   0.03600,    0.00,    0.00,    0.00,  0.00000,  0.00000,  0.00000,  0.00000,1,   0.00,   1,1.0000
    19,     87,'1 ',   0.01300,   0.08000,   0.15100,    0.00,    0.00,    0.00,  0.00000,  0.00000,  0.00000,  0.00000,1,   0.00,   1,1.0000
    20,     22,'1 ',   0.01600,   0.03300,   0.01500,    0.00,    0.00,    0.00,  0.00000,  0.00000,  0.00000,  0.00000,1,   0.00,   1,1.0000
    20,     27,'1 ',   0.06900,   0.18600,   0.09800,    0.00,    0.00,    0.00,  0.00000,  0.00000,  0.00000,  0.00000,1,   0.00,   1,1.0000
    21,     24,'1 ',   0.00400,   0.03400,   0.28000,    0.00,    0.00,    0.00,  0.00000,  0.00000,  0.00000,  0.00000,1,   0.00,   1,1.0000
    22,     23,'1 ',   0.05200,   0.11100,   0.05000,    0.00,    0.00,    0.00,  0.00000,  0.00000,  0.00000,  0.00000,1,   0.00,   1,1.0000
    23,     25,'1 ',   0.01900,   0.03900,   0.01800,    0.00,    0.00,    0.00,  0.00000,  0.00000,  0.00000,  0.00000,1,   0.00,   1,1.0000
    24,    319,'1 ',   0.00700,   0.06800,   0.13400,    0.00,    0.00,    0.00,  0.00000,  0.00000,  0.00000,  0.00000,1,   0.00,   1,1.0000
    25,     26,'1 ',   0.03600,   0.07100,   0.03400,    0.00,    0.00,    0.00,  0.00000,  0.00000,  0.00000,  0.00000,1,   0.00,   1,1.0000
    26,     27,'1 ',   0.04500,   0.12000,   0.06500,    0.00,    0.00,    0.00,  0.00000,  0.00000,  0.00000,  0.00000,1,   0.00,   1,1.0000
    26,    320,'1 ',   0.04300,   0.13000,   0.01400,    0.00,    0.00,    0.00,  0.00000,  0.00000,  0.00000,  0.00000,1,   0.00,   1,1.0000
    33,     34,'1 ',   0.00000,   0.06300,   0.00000,    0.00,    0.00,    0.00,  0.00000,  0.00000,  0.00000,  0.00000,1,   0.00,   1,1.0000
    33,     38,'1 ',   0.00250,   0.01200,   0.01300,    0.00,    0.00,    0.00,  0.00000,  0.00000,  0.00000,  0.00000,1,   0.00,   1,1.0000
    33,     40,'1 ',   0.00600,   0.02900,   0.02000,    0.00,    0.00,    0.00,  0.00000,  0.00000,  0.00000,  0.00000,1,   0.00,   1,1.0000
    33,     41,'1 ',   0.00700,   0.04300,   0.02600,    0.00,    0.00,    0.00,  0.00000,  0.00000,  0.00000,  0.00000,1,   0.00,   1,1.0000
    34,     42,'1 ',   0.00100,   0.00800,   0.04200,    0.00,    0.00,    0.00,  0.00000,  0.00000,  0.00000,  0.00000,1,   0.00,   1,1.0000
    35,     72,'1 ',   0.01200,   0.06000,   0.00800,    0.00,    0.00,    0.00,  0.00000,  0.00000,  0.00000,  0.00000,1,   0.00,   1,1.0000
    35,     76,'1 ',   0.00600,   0.01400,   0.00200,    0.00,    0.00,    0.00,  0.00000,  0.00000,  0.00000,  0.00000,1,   0.00,   1,1.0000
    35,     77,'1 ',   0.01000,   0.02900,   0.00300,    0.00,    0.00,    0.00,  0.00000,  0.00000,  0.00000,  0.00000,1,   0.00,   1,1.0000
    36,     88,'1 ',   0.00400,   0.02700,   0.04300,    0.00,    0.00,    0.00,  0.00000,  0.00000,  0.00000,  0.00000,1,   0.00,   1,1.0000
    37,     38,'1 ',   0.00800,   0.04700,   0.00800,    0.00,    0.00,    0.00,  0.00000,  0.00000,  0.00000,  0.00000,1,   0.00,   1,1.0000
    37,     40,'1 ',   0.02200,   0.06400,   0.00700,    0.00,    0.00,    0.00,  0.00000,  0.00000,  0.00000,  0.00000,1,   0.00,   1,1.0000
    37,     41,'1 ',   0.01000,   0.03600,   0.02000,    0.00,    0.00,    0.00,  0.00000,  0.00000,  0.00000,  0.00000,1,   0.00,   1,1.0000
    37,     49,'1 ',   0.01700,   0.08100,   0.04800,    0.00,    0.00,    0.00,  0.00000,  0.00000,  0.00000,  0.00000,1,   0.00,   1,1.0000
    37,     89,'1 ',   0.10200,   0.25400,   0.03300,    0.00,    0.00,    0.00,  0.00000,  0.00000,  0.00000,  0.00000,1,   0.00,   1,1.0000
    37,     90,'1 ',   0.04700,   0.12700,   0.01600,    0.00,    0.00,    0.00,  0.00000,  0.00000,  0.00000,  0.00000,1,   0.00,   1,1.0000
    38,     41,'1 ',   0.00800,   0.03700,   0.02000,    0.00,    0.00,    0.00,  0.00000,  0.00000,  0.00000,  0.00000,1,   0.00,   1,1.0000
    38,     43,'1 ',   0.03200,   0.08700,   0.04000,    0.00,    0.00,    0.00,  0.00000,  0.00000,  0.00000,  0.00000,1,   0.00,   1,1.0000
    39,     42,'1 ',   0.00060,   0.00640,   0.40400,    0.00,    0.00,    0.00,  0.00000,  0.00000,  0.00000,  0.00000,1,   0.00,   1,1.0000
    40,     48,'1 ',   0.02600,   0.15400,   0.02200,    0.00,    0.00,    0.00,  0.00000,  0.00000,  0.00000,  0.00000,1,   0.00,   1,1.0000
    41,     42,'1 ',   0.00000,   0.02900,   0.00000,    0.00,    0.00,    0.00,  0.00000,  0.00000,  0.00000,  0.00000,1,   0.00,   1,1.0000
    41,     49,'1 ',   0.06500,   0.19100,   0.02000,    0.00,    0.00,    0.00,  0.00000,  0.00000,  0.00000,  0.00000,1,   0.00,   1,1.0000
    41,     51,'1 ',   0.03100,   0.08900,   0.03600,    0.00,    0.00,    0.00,  0.00000,  0.00000,  0.00000,  0.00000,1,   0.00,   1,1.0000
    42,     46,'1 ',   0.00200,   0.01400,   0.80600,    0.00,    0.00,    0.00,  0.00000,  0.00000,  0.00000,  0.00000,1,   0.00,   1,1.0000
    43,     44,'1 ',   0.02600,   0.07200,   0.03500,    0.00,    0.00,    0.00,  0.00000,  0.00000,  0.00000,  0.00000,1,   0.00,   1,1.0000
    43,     48,'1 ',   0.09500,   0.26200,   0.03200,    0.00,    0.00,    0.00,  0.00000,  0.00000,  0.00000,  0.00000,1,   0.00,   1,1.0000
    43,     53,'1 ',   0.01300,   0.03900,   0.01600,    0.00,    0.00,    0.00,  0.00000,  0.00000,  0.00000,  0.00000,1,   0.00,   1,1.0000
    44,     47,'1 ',   0.02700,   0.08400,   0.03900,    0.00,    0.00,    0.00,  0.00000,  0.00000,  0.00000,  0.00000,1,   0.00,   1,1.0000
    44,     54,'1 ',   0.02800,   0.08400,   0.03700,    0.00,    0.00,    0.00,  0.00000,  0.00000,  0.00000,  0.00000,1,   0.00,   1,1.0000
    45,     60,'1 ',   0.00700,   0.04100,   0.31200,    0.00,    0.00,    0.00,  0.00000,  0.00000,  0.00000,  0.00000,1,   0.00,   1,1.0000
    45,     74,'1 ',   0.00900,   0.05400,   0.41100,    0.00,    0.00,    0.00,  0.00000,  0.00000,  0.00000,  0.00000,1,   0.00,   1,1.0000
    46,     81,'1 ',   0.00500,   0.04200,   0.69000,    0.00,    0.00,    0.00,  0.00000,  0.00000,  0.00000,  0.00000,1,   0.00,   1,1.0000
    47,     73,'1 ',   0.05200,   0.14500,   0.07300,    0.00,    0.00,    0.00,  0.00000,  0.00000,  0.00000,  0.00000,1,   0.00,   1,1.0000
    47,    113,'1 ',   0.04300,   0.11800,   0.01300,    0.00,    0.00,    0.00,  0.00000,  0.00000,  0.00000,  0.00000,1,   0.00,   1,1.0000
    48,    107,'1 ',   0.02500,   0.06200,   0.00700,    0.00,    0.00,    0.00,  0.00000,  0.00000,  0.00000,  0.00000,1,   0.00,   1,1.0000
    49,     51,'1 ',   0.03100,   0.09400,   0.04300,    0.00,    0.00,    0.00,  0.00000,  0.00000,  0.00000,  0.00000,1,   0.00,   1,1.0000
    51,     52,'1 ',   0.03700,   0.10900,   0.04900,    0.00,    0.00,    0.00,  0.00000,  0.00000,  0.00000,  0.00000,1,   0.00,   1,1.0000
    52,     55,'1 ',   0.02700,   0.08000,   0.03600,    0.00,    0.00,    0.00,  0.00000,  0.00000,  0.00000,  0.00000,1,   0.00,   1,1.0000
    53,     54,'1 ',   0.02500,   0.07300,   0.03500,    0.00,    0.00,    0.00,  0.00000,  0.00000,  0.00000,  0.00000,1,   0.00,   1,1.0000
    54,     55,'1 ',   0.03500,   0.10300,   0.04700,    0.00,    0.00,    0.00,  0.00000,  0.00000,  0.00000,  0.00000,1,   0.00,   1,1.0000
    55,     57,'1 ',   0.06500,   0.16900,   0.08200,    0.00,    0.00,    0.00,  0.00000,  0.00000,  0.00000,  0.00000,1,   0.00,   1,1.0000
    57,     58,'1 ',   0.04600,   0.08000,   0.03600,    0.00,    0.00,    0.00,  0.00000,  0.00000,  0.00000,  0.00000,1,   0.00,   1,1.0000
    57,     63,'1 ',   0.15900,   0.53700,   0.07100,    0.00,    0.00,    0.00,  0.00000,  0.00000,  0.00000,  0.00000,1,   0.00,   1,1.0000
    58,     59,'1 ',   0.00900,   0.02600,   0.00500,    0.00,    0.00,    0.00,  0.00000,  0.00000,  0.00000,  0.00000,1,   0.00,   1,1.0000
    59,     61,'1 ',   0.00200,   0.01300,   0.01500,    0.00,    0.00,    0.00,  0.00000,  0.00000,  0.00000,  0.00000,1,   0.00,   1,1.0000
    60,     62,'1 ',   0.00900,   0.06500,   0.48500,    0.00,    0.00,    0.00,  0.00000,  0.00000,  0.00000,  0.00000,1,   0.00,   1,1.0000
    62,     64,'1 ',   0.01600,   0.10500,   0.20300,    0.00,    0.00,    0.00,  0.00000,  0.00000,  0.00000,  0.00000,1,   0.00,   1,1.0000
...